[TITLE]
Calvin College Hydrologic Model of Whiskey Creek Watershed

[OPTIONS]
FLOW_UNITS           CFS
INFILTRATION         CURVE_NUMBER
FLOW_ROUTING         DYNWAVE
START_DATE           03/12/2012
START_TIME           00:00:00
REPORT_START_DATE    03/12/2012
REPORT_START_TIME    00:00:00
END_DATE             03/13/2012
END_TIME             00:00:00
SWEEP_START          01/01
SWEEP_END            12/31
DRY_DAYS             0
REPORT_STEP          00:05:00
WET_STEP             01:00:00
DRY_STEP             01:00:00
ROUTING_STEP         0:00:01 
ALLOW_PONDING        YES
INERTIAL_DAMPING     PARTIAL
VARIABLE_STEP        0.75
LENGTHENING_STEP     0
MIN_SURFAREA         0
NORMAL_FLOW_LIMITED  BOTH
SKIP_STEADY_STATE    NO
FORCE_MAIN_EQUATION  H-W
LINK_OFFSETS         DEPTH
MIN_SLOPE            0

[EVAPORATION]
;;Type       Parameters
;;---------- ----------
CONSTANT     0.0
DRY_ONLY     NO

[RAINGAGES]
;;               Rain      Time   Snow   Data      
;;Name           Type      Intrvl Catch  Source    
;;-------------- --------- ------ ------ ----------
1                INTENSITY 1:00   1.0    TIMESERIES 12Mar           

[SUBCATCHMENTS]
;;                                                 Total    Pcnt.             Pcnt.    Curb     Snow    
;;Name           Raingage         Outlet           Area     Imperv   Width    Slope    Length   Pack    
;;-------------- ---------------- ---------------- -------- -------- -------- -------- -------- --------
16               1                021              18.8     32       1054     3.9      0                        
5                1                01               50.7     0        1525     1.7      0                        
4                1                02               18.8     0        590      2.0      0                        
6                1                04               29.3     0        870      1.5      0                        
2                1                3                1.1      100      320      1.4      0                        
3                1                03               3.6      11       380      3.2      0                        
7                1                04               2.1      100      240      1.0      0                        
8                1                05               0.2      0        70       1.6      0                        
15               1                07               9.5      27       320      1.4      0                        
1                1                06               7.4      41       460      0.4      0                        
9                1                07               15.4     42       740      1.3      0                        
10               1                011              17.9     78       730      0.4      0                        
14               1                09               2.6      73       260      2.5      0                        
11               1                08               5.9      36       700      3.3      0                        
17               1                015              9.6      24       580      3.1      0                        
13               1                019              2.0      100      300      2.4      0                        
12               1                018              17.9     79       480      0.6      0                        
18               1                026              30.4     19       1181     1.2      0                        
19               1                022              2.2      50       201      2.1      0                        
20               1                022              1.9      25       363      2.6      0                        
21               1                023              27.4     31       830      1        0                        

[SUBAREAS]
;;Subcatchment   N-Imperv   N-Perv     S-Imperv   S-Perv     PctZero    RouteTo    PctRouted 
;;-------------- ---------- ---------- ---------- ---------- ---------- ---------- ----------
16               0.02       0.24       0.062      0.2        25         OUTLET    
5                0.02       0.4        0.062      0.3        25         OUTLET    
4                0.02       0.4        0.062      0.3        25         OUTLET    
6                0.02       0.4        0.062      0.3        25         OUTLET    
2                0.02       0.24       0.062      0.05       25         OUTLET    
3                0.02       0.24       0.062      0.25       25         OUTLET    
7                0.02       0.24       0.062      0.15       25         OUTLET    
8                0.02       0.24       0.062      0.15       25         OUTLET    
15               0.02       0.24       0.062      0.2        25         OUTLET    
1                0.02       0.24       0.062      0.25       25         OUTLET    
9                0.02       0.24       0.062      0.2        25         OUTLET    
10               0.02       0.24       0.062      0.2        25         OUTLET    
14               0.02       0.24       0.062      0.15       25         OUTLET    
11               0.02       0.24       0.062      0.15       25         OUTLET    
17               0.02       0.37       0.062      0.2        25         OUTLET    
13               0.02       0.24       0.062      0.2        25         OUTLET    
12               0.02       0.24       0.062      0.2        25         OUTLET    
18               0.02       0.24       0.062      0.2        25         OUTLET    
19               0.02       0.24       0.062      0.2        25         OUTLET    
20               0.02       0.24       0.062      0.2        25         OUTLET    
21               0.02       0.24       0.062      0.2        25         OUTLET    

[INFILTRATION]
;;Subcatchment   CurveNum   HydCon     DryTime   
;;-------------- ---------- ---------- ----------
16               82         0.5        4         
5                70.5       0.5        4         
4                70         0.5        4         
6                70         0.5        4         
2                98         0.5        4         
3                77         0.5        4         
7                98         0.5        4         
8                70         0.5        4         
15               81         0.5        4         
1                83         0.5        4         
9                83         0.5        4         
10               93         0.5        4         
14               91         0.5        4         
11               83         0.5        4         
17               80         0.5        4         
13               98         0.5        4         
12               93         0.5        4         
18               79         0.5        4         
19               86.5       0.5        4         
20               73         0.5        4         
21               81         0.5        4         

[JUNCTIONS]
;;               Invert     Max.       Init.      Surcharge  Ponded    
;;Name           Elev.      Depth      Depth      Depth      Area      
;;-------------- ---------- ---------- ---------- ---------- ----------
05               763.5      12.5       0          0          0         
07               763        6          0          0          0         
09               764        4          0          0          0         
08               766        15         0          0          0         
010              762.5      6.5        0          0          0         
011              762        9          0          0          0         
018              764        6          0          0          0         
019              762        4          0          0          0         
016              756.5      0          0          0          0         
06               765        12         0          0          0         
013              760.9      0          0          0          0         
014              759.5      0          0          0          0         
025              780.2      2          0          0          0         
024              779        2          0          0          0         

[OUTFALLS]
;;               Invert     Outfall    Stage/Table      Tide
;;Name           Elev.      Type       Time Series      Gate
;;-------------- ---------- ---------- ---------------- ----
017              755        FREE                        NO
020              0          FREE                        NO
021              760        FREE                        NO
022              0          FREE                        NO
023              0          FREE                        NO

[STORAGE]
;;               Invert   Max.     Init.    Storage    Curve                      Ponded   Evap.   
;;Name           Elev.    Depth    Depth    Curve      Params                     Area     Frac.    Infiltration Parameters
;;-------------- -------- -------- -------- ---------- -------- -------- -------- -------- -------- -----------------------
015              755.6    5        2.75     TABULAR    SeminaryPond               56000    0       
02               768.6    4        3        TABULAR    BigNorthPond               134000   0       
03               764.1    4        3        TABULAR    ButtonbushPond             36000    0       
04               762.1    4        3        TABULAR    WhiskeyPond                38000    0       
01               771      1        0        TABULAR    Marsh                      316000   0       
012              761.4    3        0        TABULAR    EastSeminarySwale           4250     0       
026              780      8        0        TABULAR    DetentionPond              21626    0       

[CONDUITS]
;;               Inlet            Outlet                      Manning    Inlet      Outlet     Init.      Max.      
;;Name           Node             Node             Length     N          Offset     Offset     Flow       Flow      
;;-------------- ---------------- ---------------- ---------- ---------- ---------- ---------- ---------- ----------
5                05               07               320        0.011      0          0          0          0         
7                07               011              800        0.011      0          0          0          0         
8                08               010              300        0.011      0          0          0          0         
9                09               010              40         0.011      0          0          0          0         
17               018              019              1000       0.011      0          0          0          0         
10               010              011              150        0.011      0          0          0          0         
14               014              015              140        0.011      0          3          0          0         
2                02               03               300        0.05       3.4        3.3        0          0         
4                04               05               250        0.011      3          0          0          0         
3                03               04               580        0.05       3.1        3          0          0         
1                01               04               1600       0.05       0          3          0          0         
16               016              017              120        0.011      0          0          0          0         
18               019              020              130        0.011      0          0          0          0         
6                06               07               700        0.011      0          0          0          0         
12               012              013              80         0.011      0          0          0          0         
11               011              012              130        0.011      0          0          0          0         
13               013              014              412.88     0.01       0          0          0          0         
21               025              024              321        0.012      0          0          0          0         
22               024              01               342        0.03       0          0          0          0         

[ORIFICES]
;;               Inlet            Outlet           Orifice      Crest      Disch.     Flap Open/Close
;;Name           Node             Node             Type         Height     Coeff.     Gate Time      
;;-------------- ---------------- ---------------- ------------ ---------- ---------- ---- ----------
19               026              025              BOTTOM       0          0.65       NO   0         

[WEIRS]
;;               Inlet            Outlet           Weir         Crest      Disch.     Flap End      End       
;;Name           Node             Node             Type         Height     Coeff.     Gate Con.     Coeff.    
;;-------------- ---------------- ---------------- ------------ ---------- ---------- ---- -------- ----------
15               015              016              TRANSVERSE   2.75       2.6        YES  0        2.6       
20               026              025              TRANSVERSE   0          3.33       NO   0        0         

[XSECTIONS]
;;Link           Shape        Geom1            Geom2      Geom3      Geom4      Barrels   
;;-------------- ------------ ---------------- ---------- ---------- ---------- ----------
5                CIRCULAR     2.5              0          0          0          1                    
7                CIRCULAR     3                0          0          0          1                    
8                CIRCULAR     2                0          0          0          1                    
9                CIRCULAR     1                0          0          0          1                    
17               CIRCULAR     2.5              0          0          0          1                    
10               CIRCULAR     1                0          0          0          1                    
14               CIRCULAR     2.5              0          0          0          1                    
2                RECT_OPEN    1                5          0          0          1                    
4                CIRCULAR     2.5              0          0          0          1                    
3                RECT_OPEN    1                6          0          0          1                    
1                RECT_OPEN    1.5              7          0          0          1                    
16               CIRCULAR     2                0          0          0          1                    
18               CIRCULAR     2.5              0          0          0          1                    
6                CIRCULAR     1                0          0          0          1                    
12               CIRCULAR     2.5              0          0          0          1                    
11               CIRCULAR     3                0          0          0          1                    
13               RECT_OPEN    2                8          0          0          1                    
21               CIRCULAR     2                0          0          0          1                    
22               RECT_OPEN    2                4          0          0          1                    
19               CIRCULAR     0.666667         0          0          0
15               RECT_OPEN    3                6          0.5        0.5       
20               RECT_OPEN    5.5              4.5        0          0         

[LOSSES]
;;Link           Inlet      Outlet     Average    Flap Gate 
;;-------------- ---------- ---------- ---------- ----------

[CURVES]
;;Name           Type       X-Value    Y-Value   
;;-------------- ---------- ---------- ----------
SeminaryPond     Storage    3          57000     
SeminaryPond                4          57000     
SeminaryPond                5          57000     

BigNorthPond     Storage    3          116000    
BigNorthPond                4          134000    
BigNorthPond                5          151000    

ButtonbushPond   Storage    3          29000     
ButtonbushPond              4          36000     
ButtonbushPond              5          43000     

WhiskeyPond      Storage    3          27000     
WhiskeyPond                 4          38000     
WhiskeyPond                 5          48000     

Marsh            Storage    0          248000    
Marsh                       1          316000    
Marsh                       2          398000    

EastSeminarySwale Storage    0          1000      
EastSeminarySwale            1          2000      
EastSeminarySwale            2          4250      

DetentionPond    Storage    0          1192      
DetentionPond               1          5013      
DetentionPond               2          8937      
DetentionPond               3          12208     
DetentionPond               4          16092     
DetentionPond               5          21626     
DetentionPond               6          21626     
DetentionPond               7          21626     
DetentionPond               8          21626     

[TIMESERIES]
;;Name           Date       Time       Value     
;;-------------- ---------- ---------- ----------
;2 Year Design Storm
2yrSCSII                    0:00       0         
2yrSCSII                    0:30       0.013     
2yrSCSII                    1:00       0.026     
2yrSCSII                    1:30       0.039     
2yrSCSII                    2:00       0.052     
2yrSCSII                    2:30       0.068     
2yrSCSII                    3:00       0.083     
2yrSCSII                    3:30       0.098     
2yrSCSII                    4:00       0.114     
2yrSCSII                    4:30       0.133     
2yrSCSII                    5:00       0.152     
2yrSCSII                    5:30       0.171     
2yrSCSII                    6:00       0.190     
2yrSCSII                    6:30       0.211     
2yrSCSII                    7:00       0.232     
2yrSCSII                    7:30       0.258     
2yrSCSII                    8:00       0.284     
2yrSCSII                    8:30       0.315     
2yrSCSII                    9:00       0.348     
2yrSCSII                    9:30       0.386     
2yrSCSII                    10:00      0.429     
2yrSCSII                    10:30      0.483     
2yrSCSII                    11:00      0.557     
2yrSCSII                    11:30      0.671     
2yrSCSII                    12:00      1.571     
2yrSCSII                    12:30      1.742     
2yrSCSII                    13:00      1.830     
2yrSCSII                    13:30      1.894     
2yrSCSII                    14:00      1.943     
2yrSCSII                    14:30      1.979     
2yrSCSII                    15:00      2.015     
2yrSCSII                    15:30      2.050     
2yrSCSII                    16:00      2.086     
2yrSCSII                    16:30      2.107     
2yrSCSII                    17:00      2.128     
2yrSCSII                    17:30      2.150     
2yrSCSII                    18:00      2.171     
2yrSCSII                    18:30      2.192     
2yrSCSII                    19:00      2.214     
2yrSCSII                    19:30      2.235     
2yrSCSII                    20:00      2.256     
2yrSCSII                    20:30      2.270     
2yrSCSII                    21:00      2.285     
2yrSCSII                    21:30      2.299     
2yrSCSII                    22:00      2.313     
2yrSCSII                    22:30      2.327     
2yrSCSII                    23:00      2.342     
2yrSCSII                    23:30      2.356     
2yrSCSII                    24:00      2.370     

;Actual storm that occured from 12am on Feb 29 to 12am on Mar 3
29Feb_2Mar       2/29/2012  0:00       0.01      
29Feb_2Mar       2/29/2012  1:00       0.02      
29Feb_2Mar       2/29/2012  2:00       0.05      
29Feb_2Mar       2/29/2012  3:00       0.02      
29Feb_2Mar       2/29/2012  4:00       0.08      
29Feb_2Mar       2/29/2012  5:00       0.12      
29Feb_2Mar       2/29/2012  6:00       0.08      
29Feb_2Mar       2/29/2012  7:00       0.03      
29Feb_2Mar       2/29/2012  8:00       0.04      
29Feb_2Mar       2/29/2012  9:00       0.01      
29Feb_2Mar       2/29/2012  10:00      0.01      
29Feb_2Mar       2/29/2012  11:00      0         
29Feb_2Mar       2/29/2012  12:00      0         
29Feb_2Mar       2/29/2012  13:00      0         
29Feb_2Mar       2/29/2012  14:00      0         
29Feb_2Mar       2/29/2012  15:00      0         
29Feb_2Mar       2/29/2012  16:00      0         
29Feb_2Mar       2/29/2012  17:00      0         
29Feb_2Mar       2/29/2012  18:00      0         
29Feb_2Mar       2/29/2012  19:00      0         
29Feb_2Mar       2/29/2012  20:00      0.09      
29Feb_2Mar       2/29/2012  21:00      0.04      
29Feb_2Mar       2/29/2012  22:00      0.02      
29Feb_2Mar       2/29/2012  23:00      0.02      
29Feb_2Mar       3/1/2012   0:00       0.01      
29Feb_2Mar       3/1/2012   1:00       0.02      
29Feb_2Mar       3/1/2012   2:00       0.01      
29Feb_2Mar       3/1/2012   3:00       0         
29Feb_2Mar       3/1/2012   4:00       0         
29Feb_2Mar       3/1/2012   5:00       0         
29Feb_2Mar       3/1/2012   6:00       0         
29Feb_2Mar       3/1/2012   7:00       0         
29Feb_2Mar       3/1/2012   8:00       0         
29Feb_2Mar       3/1/2012   9:00       0         
29Feb_2Mar       3/1/2012   10:00      0         
29Feb_2Mar       3/1/2012   11:00      0         
29Feb_2Mar       3/1/2012   12:00      0         
29Feb_2Mar       3/1/2012   13:00      0         
29Feb_2Mar       3/1/2012   14:00      0         
29Feb_2Mar       3/1/2012   15:00      0         
29Feb_2Mar       3/1/2012   16:00      0         
29Feb_2Mar       3/1/2012   17:00      0         
29Feb_2Mar       3/1/2012   18:00      0         
29Feb_2Mar       3/1/2012   19:00      0         
29Feb_2Mar       3/1/2012   20:00      0         
29Feb_2Mar       3/1/2012   21:00      0         
29Feb_2Mar       3/1/2012   22:00      0         
29Feb_2Mar       3/1/2012   23:00      0         
29Feb_2Mar       3/2/2012   0:00       0         
29Feb_2Mar       3/2/2012   1:00       0         
29Feb_2Mar       3/2/2012   2:00       0         
29Feb_2Mar       3/2/2012   3:00       0         
29Feb_2Mar       3/2/2012   4:00       0         
29Feb_2Mar       3/2/2012   5:00       0         
29Feb_2Mar       3/2/2012   6:00       0         
29Feb_2Mar       3/2/2012   7:00       0         
29Feb_2Mar       3/2/2012   8:00       0         
29Feb_2Mar       3/2/2012   9:00       0         
29Feb_2Mar       3/2/2012   10:00      0         
29Feb_2Mar       3/2/2012   11:00      0         
29Feb_2Mar       3/2/2012   12:00      0         
29Feb_2Mar       3/2/2012   13:00      0.01      
29Feb_2Mar       3/2/2012   14:00      0.11      
29Feb_2Mar       3/2/2012   15:00      0.02      
29Feb_2Mar       3/2/2012   16:00      0         
29Feb_2Mar       3/2/2012   17:00      0.04      
29Feb_2Mar       3/2/2012   18:00      0.19      
29Feb_2Mar       3/2/2012   19:00      0.06      
29Feb_2Mar       3/2/2012   20:00      0.02      
29Feb_2Mar       3/2/2012   21:00      0.01      
29Feb_2Mar       3/2/2012   22:00      0         
29Feb_2Mar       3/2/2012   23:00      0         

;Actual Storm from 3/12/2012
12Mar            3/12/2012  0:00       0         
12Mar            3/12/2012  1:00       0         
12Mar            3/12/2012  2:00       0         
12Mar            3/12/2012  3:00       0         
12Mar            3/12/2012  4:00       0.02      
12Mar            3/12/2012  5:00       0.16      
12Mar            3/12/2012  6:00       0.09      
12Mar            3/12/2012  7:00       0.1       
12Mar            3/12/2012  8:00       0.07      
12Mar            3/12/2012  9:00       0.01      
12Mar            3/12/2012  10:00      0         
12Mar            3/12/2012  11:00      0         
12Mar            3/12/2012  12:00      0         
12Mar            3/12/2012  13:00      0         
12Mar            3/12/2012  14:00      0         
12Mar            3/12/2012  15:00      0.01      
12Mar            3/12/2012  16:00      0.28      
12Mar            3/12/2012  17:00      0         
12Mar            3/12/2012  18:00      0         
12Mar            3/12/2012  19:00      0         
12Mar            3/12/2012  20:00      0         
12Mar            3/12/2012  21:00      0         
12Mar            3/12/2012  22:00      0         
12Mar            3/12/2012  23:00      0         
12Mar            3/12/2012  24:00      0         

[REPORT]
INPUT      NO
CONTROLS   NO
SUBCATCHMENTS ALL
NODES ALL
LINKS ALL

[TAGS]

[MAP]
DIMENSIONS -2500.000 0.000 12500.000 10000.000
Units      None

[COORDINATES]
;;Node           X-Coord            Y-Coord           
;;-------------- ------------------ ------------------
05               3560.209           4502.618          
07               2980.136           4244.270          
09               1627.216           2961.449          
08               919.211            3389.056          
010              1697.315           3192.778          
011              2080.275           3169.186          
018              -385.269           2599.949          
019              -307.837           824.892           
016              1539.846           423.222           
06               2769.838           6249.117          
013              2454.177           2084.889          
014              2072.881           1926.505          
025              10065.017          5590.479          
024              9371.719           5791.950          
017              1539.846           138.401           
020              -293.231           204.129           
021              5013.089           274.869           
022              3280.954           420.013           
023              5523.560           3979.058          
015              1503.331           1263.078          
02               5183.246           7172.775          
03               4073.175           6952.532          
04               4306.283           5274.869          
01               8049.738           5876.963          
012              2860.340           2267.746          
026              10284.264          5543.074          

[VERTICES]
;;Link           X-Coord            Y-Coord           
;;-------------- ------------------ ------------------
19               10122.799          5325.428          
19               9940.812           5391.145          
20               10370.503          5709.622          
20               10193.571          5795.560          

[Polygons]
;;Subcatchment   X-Coord            Y-Coord           
;;-------------- ------------------ ------------------
16               6287.280           449.823           
16               6287.280           449.823           
16               3554.693           429.950           
16               3480.168           608.810           
16               3847.825           1046.024          
16               4001.843           1453.428          
16               3867.698           1940.325          
16               6028.926           2576.273          
16               6505.887           1622.351          
16               6277.343           434.918           
5                7114.457           4130.506          
5                7174.488           4870.892          
5                6954.374           5231.079          
5                6994.394           5771.360          
5                7344.577           5931.444          
5                6824.306           6531.756          
5                6774.280           6811.902          
5                7214.509           7182.095          
5                7914.873           7282.147          
5                8575.217           7402.209          
5                9005.441           8052.548          
5                8925.400           8482.772          
5                9585.743           8832.954          
5                10486.212          8612.840          
5                10776.363          7862.449          
5                10396.165          7252.131          
5                10386.160          6341.657          
5                10596.269          6111.538          
5                10931.818          5995.455          
5                10850.000          5845.455          
5                10563.636          5600.000          
5                10454.545          5422.727          
5                10427.273          5150.000          
5                10372.727          4781.818          
5                10195.455          4604.545          
5                9909.091           4522.727          
5                9281.818           4509.091          
5                8136.364           4563.636          
5                7094.446           4180.532          
4                7904.868           7292.152          
4                7224.514           7182.095          
4                6934.363           6961.980          
4                6434.103           6961.980          
4                5803.775           6931.965          
4                5733.738           6831.913          
4                5353.540           6551.767          
4                4823.264           6521.751          
4                4683.191           6691.840          
4                4453.071           7042.022          
4                4443.066           7422.220          
4                4363.025           7992.517          
4                4423.056           8292.673          
4                4743.222           8432.746          
4                5073.394           8342.699          
4                5263.493           8142.595          